test/data/three_phase/regulator_node_load/result.csv
# result.csv run at 2000-01-01 00:00:00 EST on 13 powerflow objects (not all are nodes)
node_name,voltA_real,voltA_imag,voltB_real,voltB_imag,voltC_real,voltC_imag
n650,2401.777100,0.000000,-1200.888600,-2080.000000,-1200.888600,2080.000000
n630,2551.887725,0.000261,-1260.931282,-2183.998989,-1283.449719,2222.996472
n632,2555.056809,0.395674,-1258.339662,-2178.549073,-1270.796020,2220.907824
l6321,2555.849080,0.494527,-1257.691757,-2177.186593,-1267.632595,2220.385662
